LTspice 24.0.9 for Windows
Circuit: * C:\Users\user\Downloads\Differentialtor.asc
Start Time: Wed Mar 20 15:55:38 2024
solver = Normal
Maximum thread count: 8
tnom = 27
temp = 27
method = modified trap
Direct Newton iteration for .op point succeeded.
Total elapsed time: 1.014 seconds.

