LTspice 24.0.9 for Windows
Circuit: * C:\Users\user\Downloads\Draft3.asc
Start Time: Wed Mar 20 16:44:34 2024
solver = Normal
Maximum thread count: 8
tnom = 27
temp = 27
method = modified trap
Direct Newton iteration for .op point succeeded.
Total elapsed time: 0.262 seconds.

