LTspice 24.0.9 for Windows
Circuit: * C:\Users\user\Desktop\ParkJunho\Draft2.asc
Start Time: Thu Mar 21 17:47:05 2024
solver = Normal
Maximum thread count: 8
tnom = 27
temp = 27
method = modified trap
Direct Newton iteration for .op point succeeded.
Total elapsed time: 0.214 seconds.

