LTspice 24.0.9 for Windows
Circuit: * C:\Users\user\Desktop\ParkJunho\Sinal detection_njm4558C.asc
Start Time: Thu Mar 21 11:58:39 2024
solver = Normal
Maximum thread count: 8
tnom = 27
temp = 27
method = modified trap
Early termination of direct N-R iteration.
Direct Newton iteration failed to find .op point.  (Use ".option noopiter" to skip.)
Starting Gmin stepping
Gmin = 10
vernier = 0.5
vernier = 0.25
vernier = 0.125
Gmin = 4.096
vernier = 0.0625
vernier = 0.03125
vernier = 0.015625
Gmin = 3.91048
vernier = 0.0078125
vernier = 0.00390625
vernier = 0.00195312
vernier = 0.000976562
vernier = 0.000488281
Gmin = 3.9181
Gmin = 0
Gmin stepping failed

Starting source stepping with srcstepmethod=0
Source Step = 3.0303%
Source Step = 33.3333%
Source Step = 63.6364%
Source Step = 93.9394%
Source stepping succeeded in finding the operating point.

Total elapsed time: 0.557 seconds.

