LTspice 24.0.9 for Windows
Circuit: * C:\Users\user\Desktop\ParkJunho\Ultrasonic Pulse generator.asc
Start Time: Thu Mar 21 11:05:32 2024
Warning: Multiple definitions of model "dio2" Type: Diode
Warning: Multiple definitions of model "sw_hc2" Type: Switch
Warning: Multiple definitions of model "sw_hc1" Type: Switch
solver = Normal
Maximum thread count: 8
tnom = 27
temp = 27
method = modified trap
WARNING: Node N013 is floating.
WARNING: Node P001 is floating.
WARNING: Node N014 is floating.

Direct Newton iteration for .op point succeeded.
Ignoring empty pin current: Ix(u7:vcc)
Ignoring empty pin current: Ix(u8:vcc)
Ignoring empty pin current: Ix(u4:vdd)
Ignoring empty pin current: Ix(u3:vdd)
Ignoring empty pin current: Ix(u9:vdd)
Ignoring empty pin current: Ix(u10:vdd)
Ignoring empty pin current: Ix(u11:vdd)
Ignoring empty pin current: Ix(u12:vdd)
Ignoring empty pin current: Ix(u7:vcc)
Ignoring empty pin current: Ix(u8:vcc)
Ignoring empty pin current: Ix(u4:vdd)
Ignoring empty pin current: Ix(u3:vdd)
Ignoring empty pin current: Ix(u9:vdd)
Ignoring empty pin current: Ix(u10:vdd)
Ignoring empty pin current: Ix(u11:vdd)
Ignoring empty pin current: Ix(u12:vdd)
Total elapsed time: 22.211 seconds.

