LTspice 24.0.9 for Windows
Circuit: * C:\Users\user\Desktop\ParkJunho\P60_Signal Detection.asc
Start Time: Thu Mar 21 17:11:16 2024
Warning: Multiple definitions of model "dio2" Type: Diode
Warning: Multiple definitions of model "sw_hc2" Type: Switch
Warning: Multiple definitions of model "sw_hc1" Type: Switch
Error on line 32 : v4 n001 0 v
	 Unknown parameter "v"
solver = Normal
Maximum thread count: 8
tnom = 27
temp = 27
method = modified trap
WARNING: Less than two connections to node le.  This node is used by r:u4:out:out.
WARNING: Less than two connections to node rst.  This node is used by r:u5:out:out.
WARNING: Less than two connections to node clk.  This node is used by r:u8:out:out.
WARNING: Less than two connections to node vref.  This node is used by b1.
v4: Missing value, assumed 0V @ DC
Direct Newton iteration failed to find .op point.  (Use ".option noopiter" to skip.)
Starting Gmin stepping
Gmin = 10
vernier = 0.5
Gmin = 1.67772
vernier = 0.25
vernier = 0.125
Gmin = 1.20453
vernier = 0.0625
vernier = 0.03125
Gmin = 1.14054
vernier = 0.0416667
vernier = 0.0208333
vernier = 0.0277778
Gmin = 1.08658
vernier = 0.0138889
vernier = 0.0185185
vernier = 0.00925925
Gmin = 1.07037
vernier = 0.0123457
vernier = 0.00617283
Gmin = 1.05481
vernier = 0.00823044
vernier = 0.00411522
vernier = 0.00548696
Gmin = 1.04509
vernier = 0.00274348
vernier = 0.00365797
Gmin = 1.03866
vernier = 0.00182899
vernier = 0.00243865
Gmin = 1.03377
vernier = 0.00325153
vernier = 0.00162576
Gmin = 1.02937
vernier = 0.00216769
vernier = 0.00108384
vernier = 0.00144512
Gmin = 1.02677
vernier = 0.00192683
vernier = 0.000963415
Gmin = 1.02417
vernier = 0.00128455
vernier = 0.00171274
vernier = 0.000856369
Gmin = 1.02171
vernier = 0.00114182
vernier = 0.000570912
Gmin = 1.02018
vernier = 0.000761216
vernier = 0.00101495
vernier = 0.000507477
Gmin = 1.01873
vernier = 0.000676636
Gmin = 1.01722
vernier = 0.000902182
vernier = 0.000451091
vernier = 0.000601454
Gmin = 1.01617
vernier = 0.000801939
vernier = 0.000400969
Gmin = 1.01515
vernier = 0.000534626
vernier = 0.000712834
vernier = 0.000534626
Gmin = 1.0141
vernier = 0.000400969
vernier = 0.000534626
vernier = 0.000400969
Gmin = 1.01346
vernier = 0.000534625
vernier = 0.000400969
Gmin = 1.01264
vernier = 0.000534625
vernier = 0.000400969
Gmin = 0
Gmin stepping failed

Starting source stepping with srcstepmethod=0
Source Step = 3.0303%
Source Step = 33.3333%
Source Step = 63.6364%
Source Step = 72.7332%
Starting source stepping with srcstepmethod=1
Source Step = 3.0303%
Source Step = 33.3333%
Source Step = 52.4621%
Source stepping failed

Pseudo Transient failed in finding the operating point at 36.5649 ms.
Trouble finding operating point....skipping operating point for Transient analysis.
Ignoring empty pin current: Ix(u1:vdd)
Ignoring empty pin current: Ix(u2:vdd)
Ignoring empty pin current: Ix(u3:vdd)
Ignoring empty pin current: Ix(u4:vdd)
Ignoring empty pin current: Ix(u5:vdd)
Ignoring empty pin current: Ix(u6:vdd)
Ignoring empty pin current: Ix(u7:vdd)
Ignoring empty pin current: Ix(u8:vdd)
Ignoring empty pin current: Ix(u9:vcc)
Ignoring empty pin current: Ix(u10:vcc)
Total elapsed time: 6.954 seconds.

